# generated using pymatgen
data_K11Na(CoO2)6
_symmetry_space_group_name_H-M   'P 1'
_cell_length_a   9.98665854
_cell_length_b   4.99332927
_cell_length_c   10.49270000
_cell_angle_alpha   90.00000000
_cell_angle_beta   90.00000000
_cell_angle_gamma   60.00000000
_symmetry_Int_Tables_number   1
_chemical_formula_structural   K11Na(CoO2)6
_chemical_formula_sum   'K22 Na2 Co12 O24'
_cell_volume   453.13571532817707
_cell_formula_units_Z   2
loop_
 _symmetry_equiv_pos_site_id
 _symmetry_equiv_pos_as_xyz
  1  'x, y, z'
loop_
 _atom_site_type_symbol
 _atom_site_label
 _atom_site_symmetry_multiplicity
 _atom_site_fract_x
 _atom_site_fract_y
 _atom_site_fract_z
 _atom_site_occupancy
  K  K1  1  0.000000  0.000000  0.250000  1
  K  K2  1  0.500000  0.000000  0.250000  1
  K  K3  1  0.166666  0.333333  0.250000  1
  K  K4  1  0.666666  0.333333  0.250000  1
  K  K5  1  0.333334  0.666667  0.250000  1
  K  K6  1  0.833333  0.666667  0.250000  1
  K  K7  1  0.000000  0.000000  0.750000  1
  K  K8  1  0.500000  0.000000  0.750000  1
  K  K9  1  0.166666  0.333333  0.750000  1
  K  K10  1  0.666666  0.333333  0.750000  1
  K  K11  1  0.333334  0.666667  0.750000  1
  K  K12  1  0.833333  0.666667  0.750000  1
  K  K13  1  0.999984  0.333367  0.250000  1
  K  K14  1  0.666650  0.666700  0.250000  1
  K  K15  1  0.333317  0.000033  0.250000  1
  K  K16  1  0.833317  0.000033  0.250000  1
  K  K17  1  0.333350  0.333300  0.750000  1
  K  K18  1  0.833350  0.333300  0.750000  1
  K  K19  1  0.000016  0.666633  0.750000  1
  K  K20  1  0.500016  0.666633  0.750000  1
  K  K21  1  0.166684  0.999967  0.750000  1
  K  K22  1  0.666684  0.999967  0.750000  1
  Na  Na23  1  0.499984  0.333367  0.250000  1.0
  Na  Na24  1  0.166650  0.666700  0.250000  1.0
  Co  Co25  1  0.000000  0.000000  0.500000  1.0
  Co  Co26  1  0.500000  0.000000  0.500000  1.0
  Co  Co27  1  0.166666  0.333333  0.500000  1.0
  Co  Co28  1  0.666666  0.333333  0.500000  1.0
  Co  Co29  1  0.333334  0.666667  0.500000  1.0
  Co  Co30  1  0.833333  0.666667  0.500000  1.0
  Co  Co31  1  0.000000  0.000000  0.000000  1.0
  Co  Co32  1  0.500000  0.000000  1.000000  1.0
  Co  Co33  1  0.166666  0.333333  0.000000  1.0
  Co  Co34  1  0.666666  0.333333  1.000000  1.0
  Co  Co35  1  0.333334  0.666667  0.000000  1.0
  Co  Co36  1  0.833333  0.666667  1.000000  1.0
  O  O37  1  0.333350  0.333300  0.406400  1.0
  O  O38  1  0.833350  0.333300  0.406400  1.0
  O  O39  1  0.000016  0.666633  0.406400  1.0
  O  O40  1  0.500016  0.666633  0.406400  1.0
  O  O41  1  0.166684  0.999967  0.406400  1.0
  O  O42  1  0.666684  0.999967  0.406400  1.0
  O  O43  1  0.499984  0.333367  0.593600  1.0
  O  O44  1  0.999984  0.333367  0.593600  1.0
  O  O45  1  0.166650  0.666700  0.593600  1.0
  O  O46  1  0.666650  0.666700  0.593600  1.0
  O  O47  1  0.333317  0.000033  0.593600  1.0
  O  O48  1  0.833317  0.000033  0.593600  1.0
  O  O49  1  0.499984  0.333367  0.906400  1.0
  O  O50  1  0.999984  0.333367  0.906400  1.0
  O  O51  1  0.166650  0.666700  0.906400  1.0
  O  O52  1  0.666650  0.666700  0.906400  1.0
  O  O53  1  0.333317  0.000033  0.906400  1.0
  O  O54  1  0.833317  0.000033  0.906400  1.0
  O  O55  1  0.333350  0.333300  0.093600  1.0
  O  O56  1  0.833350  0.333300  0.093600  1.0
  O  O57  1  0.000016  0.666633  0.093600  1.0
  O  O58  1  0.500016  0.666633  0.093600  1.0
  O  O59  1  0.166684  0.999967  0.093600  1.0
  O  O60  1  0.666684  0.999967  0.093600  1.0
